Circuit: * F:\Shaiane Baroi\BRACU\Summer 2021\CSE251\LAB\Lab03\Draft1.asc

.OP point found by inspection.
.step ib=0
.step ib=5e-006
.step ib=1e-005
.step ib=1.5e-005
.step ib=2e-005
.step ib=2.5e-005

Date: Thu Sep 16 04:19:39 2021
Total elapsed time: 0.151 seconds.

tnom = 27
temp = 27
method = trap
totiter = 4855
traniter = 0
tranpoints = 0
accept = 0
rejected = 0
matrix size = 3
fillins = 0
solver = Normal
Matrix Compiler1: 86 bytes object code size  0.1/0.1/[0.1]
Matrix Compiler2: 163 bytes object code size  0.1/0.1/[0.1]

