Circuit: * C:\Users\Lenovo\OneDrive\Desktop\Lab02\HW\Draft1.asc

.OP point found by inspection.

Date: Thu Aug 19 23:17:11 2021
Total elapsed time: 0.216 seconds.

tnom = 27
temp = 27
method = modified trap
totiter = 10034
traniter = 10034
tranpoints = 5018
accept = 5018
rejected = 0
matrix size = 8
fillins = 0
solver = Normal
Matrix Compiler1: 318 bytes object code size  0.3/0.2/[0.2]
Matrix Compiler2: 574 bytes object code size  0.2/0.4/[0.2]

